<?xml version="1.0" encoding="UTF-8"?>
<routes>
    <vType id="car" accel="1.0" decel="1.5" maxSpeed="50" length="5"/>

    <flow id="north_south" type="car" from="north_in" to="south_out" begin="0" end="3600" vehsPerHour="1000"/>
    <flow id="south_north" type="car" from="south_in" to="north_out" begin="0" end="3600" vehsPerHour="1000"/>
    <flow id="east_west" type="car" from="east_in" to="west_out" begin="0" end="3600" vehsPerHour="700"/>
    <flow id="west_east" type="car" from="west_in" to="east_out" begin="0" end="3600" vehsPerHour="700"/>
</routes>

